1
2
.dc I1 0 8m 1u R2 470 25k 1000{return}{return}
25
1
/DARK
V
1
/DARK
V
1
/DARK
V
1
/DARK
V
1
/DARK
V
1
/DARK
V
1
/DARK
V
1
/DARK
V
1
/DARK
V
1
/DARK
V
1
/DARK
V
1
/DARK
V
1
/DARK
V
1
/DARK
V
1
/DARK
V
1
/DARK
V
1
/DARK
V
1
/DARK
V
1
/DARK
V
1
/DARK
V
1
/DARK
V
1
/DARK
V
1
/DARK
V
1
/DARK
V
1
/DARK
V
